
     RDKit          3D

 42 44  0  0  0  0  0  0  0  0999 V2000
   40.3180  -13.5870   69.5470 O   0  0  0  0  0  0  0  0  0  0  0  0
   39.0730  -12.8830   69.0580 P   0  0  0  0  0  0  0  0  0  0  0  0
   39.1320  -12.4030   67.6250 O   0  0  0  0  0  0  0  0  0  0  0  0
   37.7850  -13.5730   69.4330 O   0  0  0  0  0  0  0  0  0  0  0  0
   39.0350  -11.5210   69.9070 O   0  0  0  0  0  0  0  0  0  0  0  0
   40.0530  -10.5420   69.7200 C   0  0  0  0  0  0  0  0  0  0  0  0
   39.8870   -9.4440   70.7600 C   0  0  1  0  0  0  0  0  0  0  0  0
   41.1760   -8.9340   71.1040 O   0  0  0  0  0  0  0  0  0  0  0  0
   39.0550   -8.2690   70.2630 C   0  0  1  0  0  0  0  0  0  0  0  0
   38.1460   -7.8520   71.2840 O   0  0  0  0  0  0  0  0  0  0  0  0
   40.0550   -7.1720   69.9800 C   0  0  1  0  0  0  0  0  0  0  0  0
   39.5610   -5.8670   70.2870 O   0  0  0  0  0  0  0  0  0  0  0  0
   41.2170   -7.5240   70.8880 C   0  0  2  0  0  0  0  0  0  0  0  0
   42.4870   -7.1120   70.2840 N   0  0  0  0  0  0  0  0  0  0  0  0
   43.1800   -5.9730   70.7790 C   0  0  0  0  0  0  0  0  0  0  0  0
   44.3510   -5.5990   70.2160 N   0  0  0  0  0  0  0  0  0  0  0  0
   44.8670   -6.2980   69.1830 C   0  0  0  0  0  0  0  0  0  0  0  0
   44.2020   -7.4170   68.6790 C   0  0  0  0  0  0  0  0  0  0  0  0
   42.9990   -7.8120   69.2540 C   0  0  0  0  0  0  0  0  0  0  0  0
   42.7370   -5.2960   71.7330 O   0  0  0  0  0  0  0  0  0  0  0  0
   46.0340   -5.9090   68.6360 N   0  0  0  0  0  0  0  0  0  0  0  0
   40.0750   36.2550   69.1190 O   0  0  0  0  0  0  0  0  0  0  0  0
   40.5450   35.5650   67.8590 P   0  0  0  0  0  0  0  0  0  0  0  0
   39.4480   35.0130   66.9780 O   0  0  0  0  0  0  0  0  0  0  0  0
   41.6340   36.3020   67.1140 O   0  0  0  0  0  0  0  0  0  0  0  0
   41.2710   34.2450   68.4120 O   0  0  0  0  0  0  0  0  0  0  0  0
   40.5270   33.2840   69.1500 C   0  0  0  0  0  0  0  0  0  0  0  0
   41.4770   32.1960   69.6220 C   0  0  1  0  0  0  0  0  0  0  0  0
   40.9630   31.6120   70.8200 O   0  0  0  0  0  0  0  0  0  0  0  0
   41.6330   31.0840   68.5950 C   0  0  1  0  0  0  0  0  0  0  0  0
   43.0180   30.7600   68.4500 O   0  0  0  0  0  0  0  0  0  0  0  0
   40.8470   29.9180   69.1640 C   0  0  1  0  0  0  0  0  0  0  0  0
   41.4760   28.6560   68.9290 O   0  0  0  0  0  0  0  0  0  0  0  0
   40.7580   30.2070   70.6530 C   0  0  2  0  0  0  0  0  0  0  0  0
   39.4570   29.7810   71.1940 N   0  0  0  0  0  0  0  0  0  0  0  0
   39.3600   28.6090   71.9920 C   0  0  0  0  0  0  0  0  0  0  0  0
   38.1620   28.2210   72.4840 N   0  0  0  0  0  0  0  0  0  0  0  0
   37.0500   28.9410   72.2250 C   0  0  0  0  0  0  0  0  0  0  0  0
   37.1140   30.0940   71.4450 C   0  0  0  0  0  0  0  0  0  0  0  0
   38.3440   30.4980   70.9350 C   0  0  0  0  0  0  0  0  0  0  0  0
   40.3640   27.9110   72.2590 O   0  0  0  0  0  0  0  0  0  0  0  0
   35.8730   28.5330   72.7290 N   0  0  0  0  0  0  0  0  0  0  0  0
  2  1  1  0
  3  2  1  0
  4  2  1  0
  5  2  1  0
  6  5  1  0
  7  6  1  6
  8  7  1  0
  9  7  1  0
  9 10  1  1
 11  9  1  0
 11 12  1  1
 13 11  1  0
 13  8  1  0
 13 14  1  6
 15 14  1  0
 16 15  1  0
 17 16  1  0
 18 17  1  0
 19 14  1  0
 19 18  1  0
 20 15  1  0
 21 17  1  0
 23 22  1  0
 24 23  1  0
 25 23  1  0
 26 23  1  0
 27 26  1  0
 28 27  1  6
 29 28  1  0
 30 28  1  0
 30 31  1  1
 32 30  1  0
 32 33  1  1
 34 32  1  0
 34 29  1  0
 34 35  1  6
 36 35  1  0
 37 36  1  0
 38 37  1  0
 39 38  1  0
 40 39  1  0
 40 35  1  0
 41 36  1  0
 42 38  1  0
M  END
$$$$
